LTspice 24.1.9 for Windows
Circuit: C:\Users\marcu\OneDrive - FH JOANNEUM\FHJoanneum\ECE_5_WS2025\Model_Based_Design\ModelBasedDesign_TUs\TU3\LTSpice\RLC_serial.net
Start Time: Wed Oct 15 15:24:47 2025
solver = Normal
Maximum thread count: 16
tnom = 27
temp = 27
method = trap
.OP point found by inspection.
Total elapsed time: 0.098 seconds.

Files loaded:
C:\Users\marcu\OneDrive - FH JOANNEUM\FHJoanneum\ECE_5_WS2025\Model_Based_Design\ModelBasedDesign_TUs\TU3\LTSpice\RLC_serial.net

